
This summary file was generated by TurbSim (v1.06.00, 21-Sep-2012) on 01-Mar-2023 at 11:45:45.


Runtime Options:

       121  Random seed #1
    RANLUX  Type of random number generator
         F  Output binary HH turbulence parameters?
         F  Output formatted turbulence parameters?
         F  Output AeroDyn HH files?
         T  Output AeroDyn FF files?
         F  Output BLADED FF files?
         F  Output tower data?
         F  Output formatted FF files?
         F  Output coherent turbulence time step file?
         T  Clockwise rotation when looking downwind?
 0 -  NONE  IEC turbulence models scaled to exact specified standard deviation


Turbine/Model Specifications:

        21  Vertical grid-point matrix dimension
        21  Horizontal grid-point matrix dimension
     0.050  Time step [seconds]
   300.000  Analysis time [seconds]
   300.000  Usable output time [seconds]
   150.000  Hub height [m]
   285.000  Grid height [m]
   285.000  Grid width [m]
     0.000  Vertical flow angle [degrees]
     0.000  Horizontal flow angle [degrees]


Meteorological Boundary Conditions:

    IECKAI  IEC Kaimal spectral model
         3  IEC standard: IEC 61400-3 Ed. 1: 2006
         B  IEC turbulence characteristic
       NTM  IEC Normal Turbulence Model
       N/A  IEC Extreme Turbulence Model (ETM) "c" parameter [m/s]
       IEC  Wind profile type
   150.000  Reference height [m]
    11.000  Reference wind speed [m/s]
       N/A  Jet height [m]
     0.140  Power law exponent
     0.030  Surface roughness length [m]


You have requested that the following file(s) be generated:

   WIND_11mps.bts (AeroDyn/TurbSim full-field wind file)


Turbulence Simulation Scaling Parameter Summary:

   Turbulence model used                            =  IEC Kaimal
   Turbulence characteristic                        =  B
   IEC turbulence type                              =  Normal Turbulence Model
   IEC standard                                     =  IEC 61400-3 Ed. 1: 2006
   Mean wind speed at hub height                    =   11.000 m/s
   Expected value of turbulence intensity at 15 m/s =   14.000%
   Characteristic value of standard deviation       =    1.939 m/s
   Turbulence scale                                 =   42.000 m
   u-component integral scale                       =  340.200 m
   Coherency scale                                  =  340.200 m
   Characteristic value of hub turbulence intensity =   17.627%
   Gradient Richardson number                       =    0.000

   Wind profile type                                =  Power law on rotor disk, logarithmic elsewhere
   Power law exponent                               =    0.140
   Mean shear across rotor disk                     =    0.017 (m/s)/m
   Assumed rotor diameter                           =  285.000 m
   Surface roughness length                         =    0.030 m

   Number of time steps in the FFT                  =     6528
   Number of time steps output                      =     6519


Mean Flow Angles:

   Vertical   =   0.0 degrees
   Horizontal =   0.0 degrees

Mean Wind Speed Profile:

   Height    Wind Speed   Horizontal Angle  U-comp (X)   V-comp (Y)   W-comp (Z)
     (m)        (m/s)         (degrees)       (m/s)        (m/s)        (m/s)   
   ------    ----------   ----------------  ----------   ----------   ----------
    292.5       12.08            0.00         12.08         0.00         0.00
    278.2       11.99            0.00         11.99         0.00         0.00
    264.0       11.91            0.00         11.91         0.00         0.00
    249.8       11.81            0.00         11.81         0.00         0.00
    235.5       11.72            0.00         11.72         0.00         0.00
    221.2       11.62            0.00         11.62         0.00         0.00
    207.0       11.51            0.00         11.51         0.00         0.00
    192.8       11.39            0.00         11.39         0.00         0.00
    178.5       11.27            0.00         11.27         0.00         0.00
    164.2       11.14            0.00         11.14         0.00         0.00
    150.0       11.00            0.00         11.00         0.00         0.00
    135.8       10.85            0.00         10.85         0.00         0.00
    121.5       10.68            0.00         10.68         0.00         0.00
    107.2       10.50            0.00         10.50         0.00         0.00
     93.0       10.29            0.00         10.29         0.00         0.00
     78.8       10.05            0.00         10.05         0.00         0.00
     64.5        9.77            0.00          9.77         0.00         0.00
     50.2        9.44            0.00          9.44         0.00         0.00
     36.0        9.01            0.00          9.01         0.00         0.00
     21.8        8.39            0.00          8.39         0.00         0.00
      7.5        7.23            0.00          7.23         0.00         0.00


Harvested Random Seeds after Generation of the Random Numbers:

     40123944 K1
            0 K2


Hub-Height Simulated Turbulence Statistical Summary:

   Type of Wind        Min (m/s)   Mean (m/s)    Max (m/s)  Sigma (m/s)       TI (%)
   ----------------    ---------   ----------    ---------  -----------       ------
   Longitudinal (u)         3.97        11.00        16.24        1.796       16.328
   Lateral (v)             -4.41         0.00         5.69        1.493       13.573
   Vertical (w)            -4.10         0.00         3.09        0.945        8.589
   U component              3.97        11.00        16.24        1.796       16.328
   V component             -4.41         0.00         5.69        1.493       13.573
   W component             -4.10         0.00         3.09        0.945        8.589
   Horizontal (U&V)         4.10        11.11        16.24        1.754       15.792
   Total                    4.68        11.15        16.26        1.739       15.598

                       Min Reynolds     Mean Reynolds    Max Reynolds    Correlation
   Product             Stress (m/s)^2   Stress (m/s)^2   Stress (m/s)^2  Coefficient
   ----------------    --------------   --------------   --------------  -----------
   u'w'                    -19.791            -0.124             8.790        -0.073
   u'v'                    -16.225            -0.211            20.804        -0.079
   v'w'                     -8.709            -0.130             7.642        -0.092


   Friction Velocity (Ustar)  =      0.352 m/s
   Maximum Instantaneous TKE  =     31.043 (m/s)^2
   Maximum Instantaneous CTKE =     12.929 (m/s)^2


Grid Point Variance Summary:

   Y-coord -142.50 -128.25 -114.00  -99.75  -85.50  -71.25  -57.00  -42.75  -28.50  -14.25    0.00   14.25   28.50   42.75   57.00   71.25   85.50   99.75  114.00  128.25  142.50

   Height   Standard deviation at grid points for the u component:
   292.50    1.777   1.890   1.899   1.923   1.824   1.657   1.743   1.887   1.842   1.982   1.933   1.849   1.516   1.494   1.302   1.364   1.412   1.409   1.409   1.329   1.432
   278.25    1.595   1.760   1.778   1.600   1.650   1.753   1.582   1.733   1.701   1.748   1.839   1.771   1.744   1.660   1.509   1.508   1.453   1.365   1.497   1.451   1.486
   264.00    1.613   1.685   1.825   1.732   1.701   1.717   1.398   1.590   1.662   1.511   1.638   1.645   1.637   1.375   1.450   1.410   1.415   1.478   1.586   1.503   1.818
   249.75    1.670   1.798   1.951   1.964   1.703   1.608   1.477   1.735   1.822   1.765   1.426   1.525   1.702   1.439   1.272   1.280   1.502   1.631   1.602   1.854   1.924
   235.50    1.572   1.683   1.829   1.742   1.672   1.599   1.521   1.611   1.693   1.498   1.591   1.694   1.588   1.542   1.409   1.361   1.512   1.637   1.660   1.805   1.814
   221.25    1.656   1.680   1.875   1.608   1.470   1.504   1.359   1.475   1.530   1.530   1.707   1.699   1.735   1.489   1.333   1.546   1.827   1.924   1.743   1.963   1.740
   207.00    1.689   1.661   1.670   1.779   1.593   1.462   1.564   1.592   1.618   1.524   1.579   1.730   1.639   1.528   1.481   1.779   1.923   2.148   1.786   1.986   2.063
   192.75    1.643   1.574   1.627   1.646   1.551   1.476   1.569   1.469   1.350   1.607   1.651   1.701   1.696   1.770   1.923   2.040   1.969   2.118   2.110   1.997   2.127
   178.50    1.736   1.776   1.689   1.624   1.583   1.538   1.497   1.631   1.479   1.558   1.777   1.747   1.535   1.624   1.746   1.844   2.216   1.962   2.054   2.090   2.114
   164.25    1.621   1.726   1.694   1.445   1.524   1.213   1.409   1.459   1.566   1.605   1.820   1.872   1.651   1.649   1.724   1.834   1.948   1.987   2.297   2.088   1.939
   150.00    1.507   1.635   1.440   1.450   1.462   1.349   1.353   1.505   1.776   1.703   1.796   1.950   2.000   1.947   1.597   1.734   1.763   2.061   2.112   2.031   2.197
   135.75    1.445   1.624   1.522   1.618   1.408   1.303   1.411   1.478   1.604   1.430   1.541   1.648   1.534   1.775   1.804   1.686   1.693   1.823   1.937   1.817   1.989
   121.50    1.501   1.393   1.552   1.438   1.474   1.597   1.488   1.413   1.342   1.362   1.329   1.575   1.423   1.503   1.656   1.850   1.847   1.804   1.984   1.959   2.087
   107.25    1.678   1.541   1.585   1.784   1.600   1.638   1.754   1.597   1.392   1.437   1.559   1.686   1.628   1.619   1.497   1.645   1.804   1.988   1.764   1.886   2.035
    93.00    1.736   1.767   1.768   1.766   1.715   1.657   1.624   1.638   1.648   1.538   1.560   1.692   1.404   1.496   1.597   1.658   1.744   1.888   1.848   2.051   2.317
    78.75    1.868   1.870   1.812   1.684   1.751   1.666   1.547   1.726   1.691   1.700   1.654   1.581   1.599   1.486   1.484   1.654   1.563   1.843   2.156   2.381   2.199
    64.50    1.858   1.709   1.761   1.705   1.646   1.523   1.454   1.679   1.763   1.712   1.657   1.583   1.457   1.616   1.505   1.753   1.645   1.879   2.002   2.317   2.405
    50.25    1.904   1.879   1.660   1.506   1.449   1.445   1.450   1.494   1.664   1.766   1.785   1.763   1.539   1.609   1.780   1.820   1.727   1.611   1.969   2.257   2.374
    36.00    1.695   1.640   1.444   1.540   1.502   1.478   1.497   1.681   1.661   1.646   1.720   1.756   1.491   1.604   1.745   1.773   1.600   1.799   1.903   1.911   2.195
    21.75    1.787   1.488   1.394   1.381   1.665   1.692   1.687   1.551   1.577   1.492   1.524   1.553   1.576   1.511   1.620   1.586   1.766   1.715   1.861   1.962   2.159
     7.50    1.769   1.424   1.362   1.439   1.560   1.590   1.430   1.536   1.512   1.507   1.437   1.451   1.533   1.602   1.602   1.573   1.723   1.728   1.609   1.876   1.946

   Height   Standard deviation at grid points for the v component:
   292.50    1.493   1.493   1.493   1.493   1.493   1.493   1.493   1.493   1.493   1.493   1.493   1.493   1.493   1.493   1.493   1.493   1.493   1.493   1.493   1.493   1.493
   278.25    1.493   1.493   1.493   1.493   1.493   1.493   1.493   1.493   1.493   1.493   1.493   1.493   1.493   1.493   1.493   1.493   1.493   1.493   1.493   1.493   1.493
   264.00    1.493   1.493   1.493   1.493   1.493   1.493   1.493   1.493   1.493   1.493   1.493   1.493   1.493   1.493   1.493   1.493   1.493   1.493   1.493   1.493   1.493
   249.75    1.493   1.493   1.493   1.493   1.493   1.493   1.493   1.493   1.493   1.493   1.493   1.493   1.493   1.493   1.493   1.493   1.493   1.493   1.493   1.493   1.493
   235.50    1.493   1.493   1.493   1.493   1.493   1.493   1.493   1.493   1.493   1.493   1.493   1.493   1.493   1.493   1.493   1.493   1.493   1.493   1.493   1.493   1.493
   221.25    1.493   1.493   1.493   1.493   1.493   1.493   1.493   1.493   1.493   1.493   1.493   1.493   1.493   1.493   1.493   1.493   1.493   1.493   1.493   1.493   1.493
   207.00    1.493   1.493   1.493   1.493   1.493   1.493   1.493   1.493   1.493   1.493   1.493   1.493   1.493   1.493   1.493   1.493   1.493   1.493   1.493   1.493   1.493
   192.75    1.493   1.493   1.493   1.493   1.493   1.493   1.493   1.493   1.493   1.493   1.493   1.493   1.493   1.493   1.493   1.493   1.493   1.493   1.493   1.493   1.493
   178.50    1.493   1.493   1.493   1.493   1.493   1.493   1.493   1.493   1.493   1.493   1.493   1.493   1.493   1.493   1.493   1.493   1.493   1.493   1.493   1.493   1.493
   164.25    1.493   1.493   1.493   1.493   1.493   1.493   1.493   1.493   1.493   1.493   1.493   1.493   1.493   1.493   1.493   1.493   1.493   1.493   1.493   1.493   1.493
   150.00    1.493   1.493   1.493   1.493   1.493   1.493   1.493   1.493   1.493   1.493   1.493   1.493   1.493   1.493   1.493   1.493   1.493   1.493   1.493   1.493   1.493
   135.75    1.493   1.493   1.493   1.493   1.493   1.493   1.493   1.493   1.493   1.493   1.493   1.493   1.493   1.493   1.493   1.493   1.493   1.493   1.493   1.493   1.493
   121.50    1.493   1.493   1.493   1.493   1.493   1.493   1.493   1.493   1.493   1.493   1.493   1.493   1.493   1.493   1.493   1.493   1.493   1.493   1.493   1.493   1.493
   107.25    1.493   1.493   1.493   1.493   1.493   1.493   1.493   1.493   1.493   1.493   1.493   1.493   1.493   1.493   1.493   1.493   1.493   1.493   1.493   1.493   1.493
    93.00    1.493   1.493   1.493   1.493   1.493   1.493   1.493   1.493   1.493   1.493   1.493   1.493   1.493   1.493   1.493   1.493   1.493   1.493   1.493   1.493   1.493
    78.75    1.493   1.493   1.493   1.493   1.493   1.493   1.493   1.493   1.493   1.493   1.493   1.493   1.493   1.493   1.493   1.493   1.493   1.493   1.493   1.493   1.493
    64.50    1.493   1.493   1.493   1.493   1.493   1.493   1.493   1.493   1.493   1.493   1.493   1.493   1.493   1.493   1.493   1.493   1.493   1.493   1.493   1.493   1.493
    50.25    1.493   1.493   1.493   1.493   1.493   1.493   1.493   1.493   1.493   1.493   1.493   1.493   1.493   1.493   1.493   1.493   1.493   1.493   1.493   1.493   1.493
    36.00    1.493   1.493   1.493   1.493   1.493   1.493   1.493   1.493   1.493   1.493   1.493   1.493   1.493   1.493   1.493   1.493   1.493   1.493   1.493   1.493   1.493
    21.75    1.493   1.493   1.493   1.493   1.493   1.493   1.493   1.493   1.493   1.493   1.493   1.493   1.493   1.493   1.493   1.493   1.493   1.493   1.493   1.493   1.493
     7.50    1.493   1.493   1.493   1.493   1.493   1.493   1.493   1.493   1.493   1.493   1.493   1.493   1.493   1.493   1.493   1.493   1.493   1.493   1.493   1.493   1.493

   Height   Standard deviation at grid points for the w component:
   292.50    0.945   0.945   0.945   0.945   0.945   0.945   0.945   0.945   0.945   0.945   0.945   0.945   0.945   0.945   0.945   0.945   0.945   0.945   0.945   0.945   0.945
   278.25    0.945   0.945   0.945   0.945   0.945   0.945   0.945   0.945   0.945   0.945   0.945   0.945   0.945   0.945   0.945   0.945   0.945   0.945   0.945   0.945   0.945
   264.00    0.945   0.945   0.945   0.945   0.945   0.945   0.945   0.945   0.945   0.945   0.945   0.945   0.945   0.945   0.945   0.945   0.945   0.945   0.945   0.945   0.945
   249.75    0.945   0.945   0.945   0.945   0.945   0.945   0.945   0.945   0.945   0.945   0.945   0.945   0.945   0.945   0.945   0.945   0.945   0.945   0.945   0.945   0.945
   235.50    0.945   0.945   0.945   0.945   0.945   0.945   0.945   0.945   0.945   0.945   0.945   0.945   0.945   0.945   0.945   0.945   0.945   0.945   0.945   0.945   0.945
   221.25    0.945   0.945   0.945   0.945   0.945   0.945   0.945   0.945   0.945   0.945   0.945   0.945   0.945   0.945   0.945   0.945   0.945   0.945   0.945   0.945   0.945
   207.00    0.945   0.945   0.945   0.945   0.945   0.945   0.945   0.945   0.945   0.945   0.945   0.945   0.945   0.945   0.945   0.945   0.945   0.945   0.945   0.945   0.945
   192.75    0.945   0.945   0.945   0.945   0.945   0.945   0.945   0.945   0.945   0.945   0.945   0.945   0.945   0.945   0.945   0.945   0.945   0.945   0.945   0.945   0.945
   178.50    0.945   0.945   0.945   0.945   0.945   0.945   0.945   0.945   0.945   0.945   0.945   0.945   0.945   0.945   0.945   0.945   0.945   0.945   0.945   0.945   0.945
   164.25    0.945   0.945   0.945   0.945   0.945   0.945   0.945   0.945   0.945   0.945   0.945   0.945   0.945   0.945   0.945   0.945   0.945   0.945   0.945   0.945   0.945
   150.00    0.945   0.945   0.945   0.945   0.945   0.945   0.945   0.945   0.945   0.945   0.945   0.945   0.945   0.945   0.945   0.945   0.945   0.945   0.945   0.945   0.945
   135.75    0.945   0.945   0.945   0.945   0.945   0.945   0.945   0.945   0.945   0.945   0.945   0.945   0.945   0.945   0.945   0.945   0.945   0.945   0.945   0.945   0.945
   121.50    0.945   0.945   0.945   0.945   0.945   0.945   0.945   0.945   0.945   0.945   0.945   0.945   0.945   0.945   0.945   0.945   0.945   0.945   0.945   0.945   0.945
   107.25    0.945   0.945   0.945   0.945   0.945   0.945   0.945   0.945   0.945   0.945   0.945   0.945   0.945   0.945   0.945   0.945   0.945   0.945   0.945   0.945   0.945
    93.00    0.945   0.945   0.945   0.945   0.945   0.945   0.945   0.945   0.945   0.945   0.945   0.945   0.945   0.945   0.945   0.945   0.945   0.945   0.945   0.945   0.945
    78.75    0.945   0.945   0.945   0.945   0.945   0.945   0.945   0.945   0.945   0.945   0.945   0.945   0.945   0.945   0.945   0.945   0.945   0.945   0.945   0.945   0.945
    64.50    0.945   0.945   0.945   0.945   0.945   0.945   0.945   0.945   0.945   0.945   0.945   0.945   0.945   0.945   0.945   0.945   0.945   0.945   0.945   0.945   0.945
    50.25    0.945   0.945   0.945   0.945   0.945   0.945   0.945   0.945   0.945   0.945   0.945   0.945   0.945   0.945   0.945   0.945   0.945   0.945   0.945   0.945   0.945
    36.00    0.945   0.945   0.945   0.945   0.945   0.945   0.945   0.945   0.945   0.945   0.945   0.945   0.945   0.945   0.945   0.945   0.945   0.945   0.945   0.945   0.945
    21.75    0.945   0.945   0.945   0.945   0.945   0.945   0.945   0.945   0.945   0.945   0.945   0.945   0.945   0.945   0.945   0.945   0.945   0.945   0.945   0.945   0.945
     7.50    0.945   0.945   0.945   0.945   0.945   0.945   0.945   0.945   0.945   0.945   0.945   0.945   0.945   0.945   0.945   0.945   0.945   0.945   0.945   0.945   0.945

   Mean standard deviation across all grid points:
      u component:    1.676 m/s
      v component:    1.493 m/s
      w component:    0.945 m/s


U-component (X) statistics from the hub grid point:

   Mean =  11.0000 m/s
   TI   =  16.3282 %

Nyquist frequency of turbulent wind field =        10.000 Hz


Processing complete.  5.1094 CPU seconds used.
