
This summary file was generated by TurbSim (v1.06.00, 21-Sep-2012) on 27-Sep-2023 at 16:57:43.


Runtime Options:

       121  Random seed #1
    RANLUX  Type of random number generator
         F  Output binary HH turbulence parameters?
         F  Output formatted turbulence parameters?
         F  Output AeroDyn HH files?
         T  Output AeroDyn FF files?
         F  Output BLADED FF files?
         F  Output tower data?
         F  Output formatted FF files?
         F  Output coherent turbulence time step file?
         T  Clockwise rotation when looking downwind?
 0 -  NONE  IEC turbulence models scaled to exact specified standard deviation


Turbine/Model Specifications:

        21  Vertical grid-point matrix dimension
        21  Horizontal grid-point matrix dimension
     0.050  Time step [seconds]
  1300.000  Analysis time [seconds]
  1300.000  Usable output time [seconds]
   150.000  Hub height [m]
   285.000  Grid height [m]
   285.000  Grid width [m]
     0.000  Vertical flow angle [degrees]
     0.000  Horizontal flow angle [degrees]


Meteorological Boundary Conditions:

    IECKAI  IEC Kaimal spectral model
         3  IEC standard: IEC 61400-3 Ed. 1: 2006
         B  IEC turbulence characteristic
       NTM  IEC Normal Turbulence Model
       N/A  IEC Extreme Turbulence Model (ETM) "c" parameter [m/s]
       IEC  Wind profile type
   150.000  Reference height [m]
    11.000  Reference wind speed [m/s]
       N/A  Jet height [m]
     0.140  Power law exponent
     0.030  Surface roughness length [m]


You have requested that the following file(s) be generated:

   WIND_11mps.bts (AeroDyn/TurbSim full-field wind file)


Turbulence Simulation Scaling Parameter Summary:

   Turbulence model used                            =  IEC Kaimal
   Turbulence characteristic                        =  B
   IEC turbulence type                              =  Normal Turbulence Model
   IEC standard                                     =  IEC 61400-3 Ed. 1: 2006
   Mean wind speed at hub height                    =   11.000 m/s
   Expected value of turbulence intensity at 15 m/s =   14.000%
   Characteristic value of standard deviation       =    1.939 m/s
   Turbulence scale                                 =   42.000 m
   u-component integral scale                       =  340.200 m
   Coherency scale                                  =  340.200 m
   Characteristic value of hub turbulence intensity =   17.627%
   Gradient Richardson number                       =    0.000

   Wind profile type                                =  Power law on rotor disk, logarithmic elsewhere
   Power law exponent                               =    0.140
   Mean shear across rotor disk                     =    0.017 (m/s)/m
   Assumed rotor diameter                           =  285.000 m
   Surface roughness length                         =    0.030 m

   Number of time steps in the FFT                  =    26520
   Number of time steps output                      =    26519


Mean Flow Angles:

   Vertical   =   0.0 degrees
   Horizontal =   0.0 degrees

Mean Wind Speed Profile:

   Height    Wind Speed   Horizontal Angle  U-comp (X)   V-comp (Y)   W-comp (Z)
     (m)        (m/s)         (degrees)       (m/s)        (m/s)        (m/s)   
   ------    ----------   ----------------  ----------   ----------   ----------
    292.5       12.08            0.00         12.08         0.00         0.00
    278.2       11.99            0.00         11.99         0.00         0.00
    264.0       11.91            0.00         11.91         0.00         0.00
    249.8       11.81            0.00         11.81         0.00         0.00
    235.5       11.72            0.00         11.72         0.00         0.00
    221.2       11.62            0.00         11.62         0.00         0.00
    207.0       11.51            0.00         11.51         0.00         0.00
    192.8       11.39            0.00         11.39         0.00         0.00
    178.5       11.27            0.00         11.27         0.00         0.00
    164.2       11.14            0.00         11.14         0.00         0.00
    150.0       11.00            0.00         11.00         0.00         0.00
    135.8       10.85            0.00         10.85         0.00         0.00
    121.5       10.68            0.00         10.68         0.00         0.00
    107.2       10.50            0.00         10.50         0.00         0.00
     93.0       10.29            0.00         10.29         0.00         0.00
     78.8       10.05            0.00         10.05         0.00         0.00
     64.5        9.77            0.00          9.77         0.00         0.00
     50.2        9.44            0.00          9.44         0.00         0.00
     36.0        9.01            0.00          9.01         0.00         0.00
     21.8        8.39            0.00          8.39         0.00         0.00
      7.5        7.23            0.00          7.23         0.00         0.00


Harvested Random Seeds after Generation of the Random Numbers:

    163003423 K1
            0 K2


Hub-Height Simulated Turbulence Statistical Summary:

   Type of Wind        Min (m/s)   Mean (m/s)    Max (m/s)  Sigma (m/s)       TI (%)
   ----------------    ---------   ----------    ---------  -----------       ------
   Longitudinal (u)         4.77        11.00        16.99        1.857       16.885
   Lateral (v)             -5.83         0.00         5.53        1.528       13.895
   Vertical (w)            -3.80         0.00         3.44        0.950        8.641
   U component              4.77        11.00        16.99        1.857       16.885
   V component             -5.83         0.00         5.53        1.528       13.895
   W component             -3.80         0.00         3.44        0.950        8.641
   Horizontal (U&V)         4.96        11.11        16.99        1.848       16.635
   Total                    4.99        11.15        17.03        1.844       16.542

                       Min Reynolds     Mean Reynolds    Max Reynolds    Correlation
   Product             Stress (m/s)^2   Stress (m/s)^2   Stress (m/s)^2  Coefficient
   ----------------    --------------   --------------   --------------  -----------
   u'w'                    -12.570            -0.036            11.538        -0.020
   u'v'                    -14.639             0.167            19.369         0.059
   v'w'                    -10.970            -0.061            11.337        -0.042


   Friction Velocity (Ustar)  =      0.190 m/s
   Maximum Instantaneous TKE  =     23.964 (m/s)^2
   Maximum Instantaneous CTKE =     10.270 (m/s)^2


Grid Point Variance Summary:

   Y-coord -142.50 -128.25 -114.00  -99.75  -85.50  -71.25  -57.00  -42.75  -28.50  -14.25    0.00   14.25   28.50   42.75   57.00   71.25   85.50   99.75  114.00  128.25  142.50

   Height   Standard deviation at grid points for the u component:
   292.50    1.778   1.757   1.706   1.693   1.730   1.837   1.870   1.899   1.925   1.921   1.944   1.924   1.920   1.867   2.071   2.107   2.014   2.001   1.996   1.871   1.873
   278.25    1.765   1.752   1.673   1.734   1.868   2.001   1.916   1.877   1.931   1.924   1.850   1.781   1.891   2.009   2.087   2.156   2.117   2.126   2.169   2.015   1.945
   264.00    1.833   1.829   1.782   1.934   1.989   1.970   2.007   2.009   1.894   1.884   1.900   1.915   1.940   1.845   2.051   2.163   2.130   2.092   2.072   2.056   1.951
   249.75    1.889   1.836   1.980   1.970   2.022   1.946   1.960   2.073   1.960   1.973   1.919   1.915   1.758   2.017   2.152   2.267   2.150   2.035   2.081   2.037   2.102
   235.50    1.934   1.898   1.935   1.876   1.939   2.036   2.046   2.018   1.973   1.988   1.988   1.989   1.868   2.100   2.209   2.248   2.071   2.149   2.118   1.945   2.148
   221.25    1.884   1.953   1.913   1.768   1.878   1.975   2.049   2.100   2.069   2.020   1.981   2.036   2.063   2.134   2.226   2.241   2.078   2.183   2.184   2.101   2.109
   207.00    1.958   2.091   1.961   1.804   1.927   1.989   2.103   2.138   2.120   1.983   1.999   2.080   2.049   2.150   2.165   2.220   2.135   2.189   2.206   2.139   1.978
   192.75    2.223   2.093   2.094   1.913   1.990   2.044   2.077   2.033   2.186   2.078   1.998   1.948   2.043   2.134   2.129   2.213   2.193   2.270   2.227   2.072   2.041
   178.50    2.152   2.162   2.185   1.963   1.969   2.045   2.024   2.061   2.027   2.046   1.995   1.989   2.087   2.097   2.284   2.277   2.232   2.229   2.117   2.105   2.001
   164.25    2.102   2.094   2.068   1.970   1.873   1.961   1.994   2.001   2.024   1.966   1.886   1.892   1.915   2.169   2.228   2.292   2.361   2.192   2.134   2.032   2.070
   150.00    1.991   1.935   1.987   1.863   1.981   2.119   1.986   2.036   1.920   2.009   1.857   1.915   1.975   2.058   2.245   2.370   2.347   2.275   2.170   2.111   2.058
   135.75    1.891   1.872   1.840   1.882   1.881   1.983   1.923   2.032   1.984   1.937   1.934   2.011   2.034   2.206   2.293   2.248   2.316   2.340   2.316   2.274   2.116
   121.50    1.856   1.776   1.894   1.815   1.896   1.836   1.896   1.961   2.006   1.872   2.020   2.101   2.103   2.274   2.272   2.412   2.324   2.222   2.241   2.139   2.050
   107.25    1.826   1.674   1.735   1.777   1.908   1.831   1.822   1.934   1.937   1.833   1.936   2.033   2.012   2.304   2.452   2.318   2.292   2.228   2.254   2.181   2.096
    93.00    1.763   1.768   1.609   1.755   1.799   1.858   1.826   1.845   1.836   1.835   1.986   1.905   2.107   2.238   2.395   2.237   2.253   2.190   2.200   2.147   2.141
    78.75    1.673   1.771   1.684   1.609   1.810   1.792   1.703   1.646   1.811   1.749   1.815   2.003   2.025   2.048   2.196   2.233   2.085   2.026   2.039   2.051   2.091
    64.50    1.683   1.566   1.571   1.753   1.764   1.693   1.606   1.644   1.743   1.842   1.954   2.123   1.984   2.162   2.164   2.111   1.969   2.033   2.073   1.898   1.892
    50.25    1.715   1.724   1.721   1.675   1.768   1.569   1.666   1.670   1.838   1.922   1.968   2.033   2.021   2.149   2.111   1.964   1.967   1.900   1.939   1.956   1.901
    36.00    1.663   1.827   1.639   1.674   1.720   1.583   1.589   1.718   1.839   1.988   1.949   2.086   2.074   2.077   2.013   1.925   1.914   1.898   1.890   1.922   1.921
    21.75    1.840   1.848   1.741   1.675   1.680   1.700   1.807   1.699   1.848   1.983   2.054   2.074   1.974   2.031   2.005   1.902   1.991   1.970   1.878   1.878   1.810
     7.50    1.888   1.794   1.818   1.853   1.768   1.729   1.755   1.869   1.860   1.956   1.945   2.061   2.035   2.034   2.030   2.160   2.108   1.953   1.876   1.712   1.670

   Height   Standard deviation at grid points for the v component:
   292.50    1.528   1.528   1.528   1.528   1.528   1.528   1.528   1.528   1.528   1.528   1.528   1.528   1.528   1.528   1.528   1.528   1.528   1.528   1.528   1.528   1.528
   278.25    1.528   1.528   1.528   1.528   1.528   1.528   1.528   1.528   1.528   1.528   1.528   1.528   1.528   1.528   1.528   1.528   1.528   1.528   1.528   1.528   1.528
   264.00    1.528   1.528   1.528   1.528   1.528   1.528   1.528   1.528   1.528   1.528   1.528   1.528   1.528   1.528   1.528   1.528   1.528   1.528   1.528   1.528   1.528
   249.75    1.528   1.528   1.528   1.528   1.528   1.528   1.528   1.528   1.528   1.528   1.528   1.528   1.528   1.528   1.528   1.528   1.528   1.528   1.528   1.528   1.528
   235.50    1.528   1.528   1.528   1.528   1.528   1.528   1.528   1.528   1.528   1.528   1.528   1.528   1.528   1.528   1.528   1.528   1.528   1.528   1.528   1.528   1.528
   221.25    1.528   1.528   1.528   1.528   1.528   1.528   1.528   1.528   1.528   1.528   1.528   1.528   1.528   1.528   1.528   1.528   1.528   1.528   1.528   1.528   1.528
   207.00    1.528   1.528   1.528   1.528   1.528   1.528   1.528   1.528   1.528   1.528   1.528   1.528   1.528   1.528   1.528   1.528   1.528   1.528   1.528   1.528   1.528
   192.75    1.528   1.528   1.528   1.528   1.528   1.528   1.528   1.528   1.528   1.528   1.528   1.528   1.528   1.528   1.528   1.528   1.528   1.528   1.528   1.528   1.528
   178.50    1.528   1.528   1.528   1.528   1.528   1.528   1.528   1.528   1.528   1.528   1.528   1.528   1.528   1.528   1.528   1.528   1.528   1.528   1.528   1.528   1.528
   164.25    1.528   1.528   1.528   1.528   1.528   1.528   1.528   1.528   1.528   1.528   1.528   1.528   1.528   1.528   1.528   1.528   1.528   1.528   1.528   1.528   1.528
   150.00    1.528   1.528   1.528   1.528   1.528   1.528   1.528   1.528   1.528   1.528   1.528   1.528   1.528   1.528   1.528   1.528   1.528   1.528   1.528   1.528   1.528
   135.75    1.528   1.528   1.528   1.528   1.528   1.528   1.528   1.528   1.528   1.528   1.528   1.528   1.528   1.528   1.528   1.528   1.528   1.528   1.528   1.528   1.528
   121.50    1.528   1.528   1.528   1.528   1.528   1.528   1.528   1.528   1.528   1.528   1.528   1.528   1.528   1.528   1.528   1.528   1.528   1.528   1.528   1.528   1.528
   107.25    1.528   1.528   1.528   1.528   1.528   1.528   1.528   1.528   1.528   1.528   1.528   1.528   1.528   1.528   1.528   1.528   1.528   1.528   1.528   1.528   1.528
    93.00    1.528   1.528   1.528   1.528   1.528   1.528   1.528   1.528   1.528   1.528   1.528   1.528   1.528   1.528   1.528   1.528   1.528   1.528   1.528   1.528   1.528
    78.75    1.528   1.528   1.528   1.528   1.528   1.528   1.528   1.528   1.528   1.528   1.528   1.528   1.528   1.528   1.528   1.528   1.528   1.528   1.528   1.528   1.528
    64.50    1.528   1.528   1.528   1.528   1.528   1.528   1.528   1.528   1.528   1.528   1.528   1.528   1.528   1.528   1.528   1.528   1.528   1.528   1.528   1.528   1.528
    50.25    1.528   1.528   1.528   1.528   1.528   1.528   1.528   1.528   1.528   1.528   1.528   1.528   1.528   1.528   1.528   1.528   1.528   1.528   1.528   1.528   1.528
    36.00    1.528   1.528   1.528   1.528   1.528   1.528   1.528   1.528   1.528   1.528   1.528   1.528   1.528   1.528   1.528   1.528   1.528   1.528   1.528   1.528   1.528
    21.75    1.528   1.528   1.528   1.528   1.528   1.528   1.528   1.528   1.528   1.528   1.528   1.528   1.528   1.528   1.528   1.528   1.528   1.528   1.528   1.528   1.528
     7.50    1.528   1.528   1.528   1.528   1.528   1.528   1.528   1.528   1.528   1.528   1.528   1.528   1.528   1.528   1.528   1.528   1.528   1.528   1.528   1.528   1.528

   Height   Standard deviation at grid points for the w component:
   292.50    0.950   0.950   0.950   0.950   0.950   0.950   0.950   0.950   0.950   0.950   0.950   0.950   0.950   0.950   0.950   0.950   0.950   0.950   0.950   0.950   0.950
   278.25    0.950   0.950   0.950   0.950   0.950   0.950   0.950   0.950   0.950   0.950   0.950   0.950   0.950   0.950   0.950   0.950   0.950   0.950   0.950   0.950   0.950
   264.00    0.950   0.950   0.950   0.950   0.950   0.950   0.950   0.950   0.950   0.950   0.950   0.950   0.950   0.950   0.950   0.950   0.950   0.950   0.950   0.950   0.950
   249.75    0.950   0.950   0.950   0.950   0.950   0.950   0.950   0.950   0.950   0.950   0.950   0.950   0.950   0.950   0.950   0.950   0.950   0.950   0.950   0.950   0.950
   235.50    0.950   0.950   0.950   0.950   0.950   0.950   0.950   0.950   0.950   0.950   0.950   0.950   0.950   0.950   0.950   0.950   0.950   0.950   0.950   0.950   0.950
   221.25    0.950   0.950   0.950   0.950   0.950   0.950   0.950   0.950   0.950   0.950   0.950   0.950   0.950   0.950   0.950   0.950   0.950   0.950   0.950   0.950   0.950
   207.00    0.950   0.950   0.950   0.950   0.950   0.950   0.950   0.950   0.950   0.950   0.950   0.950   0.950   0.950   0.950   0.950   0.950   0.950   0.950   0.950   0.950
   192.75    0.950   0.950   0.950   0.950   0.950   0.950   0.950   0.950   0.950   0.950   0.950   0.950   0.950   0.950   0.950   0.950   0.950   0.950   0.950   0.950   0.950
   178.50    0.950   0.950   0.950   0.950   0.950   0.950   0.950   0.950   0.950   0.950   0.950   0.950   0.950   0.950   0.950   0.950   0.950   0.950   0.950   0.950   0.950
   164.25    0.950   0.950   0.950   0.950   0.950   0.950   0.950   0.950   0.950   0.950   0.950   0.950   0.950   0.950   0.950   0.950   0.950   0.950   0.950   0.950   0.950
   150.00    0.950   0.950   0.950   0.950   0.950   0.950   0.950   0.950   0.950   0.950   0.950   0.950   0.950   0.950   0.950   0.950   0.950   0.950   0.950   0.950   0.950
   135.75    0.950   0.950   0.950   0.950   0.950   0.950   0.950   0.950   0.950   0.950   0.950   0.950   0.950   0.950   0.950   0.950   0.950   0.950   0.950   0.950   0.950
   121.50    0.950   0.950   0.950   0.950   0.950   0.950   0.950   0.950   0.950   0.950   0.950   0.950   0.950   0.950   0.950   0.950   0.950   0.950   0.950   0.950   0.950
   107.25    0.950   0.950   0.950   0.950   0.950   0.950   0.950   0.950   0.950   0.950   0.950   0.950   0.950   0.950   0.950   0.950   0.950   0.950   0.950   0.950   0.950
    93.00    0.950   0.950   0.950   0.950   0.950   0.950   0.950   0.950   0.950   0.950   0.950   0.950   0.950   0.950   0.950   0.950   0.950   0.950   0.950   0.950   0.950
    78.75    0.950   0.950   0.950   0.950   0.950   0.950   0.950   0.950   0.950   0.950   0.950   0.950   0.950   0.950   0.950   0.950   0.950   0.950   0.950   0.950   0.950
    64.50    0.950   0.950   0.950   0.950   0.950   0.950   0.950   0.950   0.950   0.950   0.950   0.950   0.950   0.950   0.950   0.950   0.950   0.950   0.950   0.950   0.950
    50.25    0.950   0.950   0.950   0.950   0.950   0.950   0.950   0.950   0.950   0.950   0.950   0.950   0.950   0.950   0.950   0.950   0.950   0.950   0.950   0.950   0.950
    36.00    0.950   0.950   0.950   0.950   0.950   0.950   0.950   0.950   0.950   0.950   0.950   0.950   0.950   0.950   0.950   0.950   0.950   0.950   0.950   0.950   0.950
    21.75    0.950   0.950   0.950   0.950   0.950   0.950   0.950   0.950   0.950   0.950   0.950   0.950   0.950   0.950   0.950   0.950   0.950   0.950   0.950   0.950   0.950
     7.50    0.950   0.950   0.950   0.950   0.950   0.950   0.950   0.950   0.950   0.950   0.950   0.950   0.950   0.950   0.950   0.950   0.950   0.950   0.950   0.950   0.950

   Mean standard deviation across all grid points:
      u component:    1.981 m/s
      v component:    1.528 m/s
      w component:    0.950 m/s


U-component (X) statistics from the hub grid point:

   Mean =  11.0000 m/s
   TI   =  16.8851 %

Nyquist frequency of turbulent wind field =        10.000 Hz


Processing complete.  11.75 CPU seconds used.
